powerflow/Codes/PF_Formulation/resultados_csv/9bus__pm.csv
ID_Barra,Tipo_Barra,Vm_pu,Va_graus,Pg_pu,Qg_pu,Pd_pu,Qd_pu
1,3,1.075,0.0,1.4249138602465392,0.10878678251316226,0.0,0.0
2,2,1.075,-1.830630942252556,0.9,-0.02595465093060352,0.0,0.0
3,2,1.075,-1.4477095693262017,0.85,-0.13735516017397884,0.0,0.0
4,1,1.071893599818958,-4.084524560358287,0.0,0.0,0.0,0.0
5,1,1.050078551206911,-7.704159194027004,0.0,0.0,1.25,0.5
6,1,1.0641654827925358,-6.699227981509688,0.0,0.0,0.9,0.3
7,1,1.077779928380241,-4.613401414256486,0.0,0.0,0.0,0.0
8,1,1.0690932137165186,-6.36326886401337,0.0,0.0,1.0,0.35
9,1,1.083478660355622,-3.8987069000264425,0.0,0.0,0.0,0.0
